Version 4
SHEET 1 880 680
WIRE 256 32 208 32
WIRE 256 48 256 32
WIRE 208 144 208 32
WIRE 208 144 176 144
WIRE 208 176 176 176
WIRE 208 208 176 208
WIRE 272 240 176 240
WIRE 208 272 176 272
WIRE 208 288 208 272
FLAG 208 288 0
FLAG 272 320 0
FLAG 256 128 0
FLAG 208 176 PHI1
IOPIN 208 176 BiDir
FLAG 208 208 PHI2
IOPIN 208 208 BiDir
FLAG 208 32 PHI
IOPIN 208 32 BiDir
SYMBOL 2phase_CLK 128 240 R0
SYMATTR InstName X1
SYMBOL voltage 272 224 R0
WINDOW 123 0 0 Left 2
WINDOW 39 0 0 Left 2
SYMATTR InstName V1
SYMATTR Value 3
SYMBOL voltage 256 32 R0
WINDOW 123 0 0 Left 2
WINDOW 39 0 0 Left 2
SYMATTR InstName V2
SYMATTR Value PULSE(0 3 0 0.1m 0.1m 25m 50m)
TEXT 88 344 Left 2 !.tran 500m
TEXT 88 376 Left 2 !.Include cmos2017_models.txt
