Version 4
SHEET 1 880 680
WIRE 0 16 -32 16
WIRE -32 80 -32 16
WIRE -32 80 -48 80
WIRE 0 112 0 80
WIRE 0 112 -48 112
WIRE -32 144 -48 144
WIRE 112 176 -48 176
WIRE 16 208 -48 208
WIRE 32 208 32 144
WIRE 32 208 16 208
WIRE -32 240 -48 240
WIRE -32 288 -32 240
WIRE 112 288 112 256
FLAG -32 288 0
FLAG 16 288 0
FLAG 112 288 0
SYMBOL Output_Driver -112 160 R0
SYMATTR InstName X1
SYMBOL voltage 16 192 R0
SYMATTR InstName V1
SYMATTR Value 3
SYMBOL voltage 112 160 R0
WINDOW 123 0 0 Left 2
WINDOW 39 0 0 Left 2
WINDOW 3 -20 183 Left 2
SYMATTR Value PULSE(0 3 5m 1p 1p 20m 400m 2)
SYMATTR InstName V2
SYMBOL diode 32 128 R90
WINDOW 0 0 32 VBottom 2
WINDOW 3 32 32 VTop 2
SYMATTR InstName D1
SYMATTR Value Di_LED
SYMBOL cap -16 16 R0
SYMATTR InstName C1
SYMATTR Value 100n
TEXT 88 416 Left 2 !.include cmos2017_models.txt
TEXT -112 448 Left 2 !.model Di_LED D (IS=4e-20 RS=0 BV=5 IBV=100u CJO=0 M=0.5 N=2)
TEXT -112 480 Left 2 !.options plotwinsize=0
TEXT -112 512 Left 2 !.tran 10
