Version 4
SHEET 1 880 680
WIRE -16 16 -240 16
WIRE 80 48 80 32
WIRE 0 80 -64 80
WIRE 128 80 112 80
WIRE -16 112 -16 16
WIRE 0 112 -16 112
WIRE -144 128 -144 112
WIRE 224 128 224 112
WIRE 80 144 80 128
WIRE 80 144 48 144
WIRE -240 160 -240 16
WIRE -240 160 -256 160
WIRE -224 160 -240 160
WIRE -64 160 -64 80
WIRE -64 160 -112 160
WIRE 48 160 48 144
WIRE 128 160 128 80
WIRE 144 160 128 160
WIRE 320 160 256 160
WIRE -240 192 -256 192
WIRE -224 192 -240 192
WIRE 144 192 128 192
WIRE -144 224 -144 208
WIRE 224 224 224 208
WIRE 80 256 80 240
WIRE -64 288 -64 160
WIRE 0 288 -64 288
WIRE 128 288 128 192
WIRE 128 288 112 288
WIRE -240 320 -240 192
WIRE 0 320 -240 320
WIRE 80 352 80 336
FLAG 80 32 VDD
IOPIN 80 32 BiDir
FLAG 80 240 VDD
IOPIN 80 240 BiDir
FLAG -144 112 VDD
IOPIN -144 112 BiDir
FLAG 224 112 VDD
IOPIN 224 112 BiDir
FLAG -256 160 A
IOPIN -256 160 BiDir
FLAG -256 192 B
IOPIN -256 192 BiDir
FLAG 320 160 VOUT
IOPIN 320 160 BiDir
FLAG -144 224 VSS
IOPIN -144 224 BiDir
FLAG 48 160 VSS
IOPIN 48 160 BiDir
FLAG 80 352 VSS
IOPIN 80 352 BiDir
FLAG 224 224 VSS
IOPIN 224 224 BiDir
SYMBOL nand 48 96 R0
SYMATTR InstName X1
SYMBOL nand 48 304 R0
SYMATTR InstName X2
SYMBOL nand -176 176 R0
SYMATTR InstName X3
SYMBOL nand 192 176 R0
SYMATTR InstName X4
