Version 4
SHEET 1 880 680
WIRE 176 32 0 32
WIRE 0 48 0 32
WIRE 176 128 176 32
WIRE 112 160 48 160
WIRE 272 160 256 160
WIRE 288 160 272 160
WIRE 48 192 48 160
WIRE 272 208 272 160
WIRE 288 208 272 208
WIRE 176 224 176 192
FLAG 176 224 0
FLAG 288 160 VOUT
IOPIN 288 160 Out
FLAG 0 112 0
FLAG 48 272 0
FLAG 176 32 VDD
IOPIN 176 32 BiDir
FLAG 48 160 VIN
IOPIN 48 160 BiDir
FLAG 288 208 VOUT
IOPIN 288 208 BiDir
SYMBOL Invertor_Jan20 176 160 R0
SYMATTR InstName X1
SYMBOL voltage 48 176 R0
WINDOW 123 0 0 Left 2
WINDOW 39 0 0 Left 2
SYMATTR InstName VIN
SYMATTR Value PULSE(0 3 0 0.1n 0.1n 10n 20n 3)
SYMBOL voltage 0 16 R0
WINDOW 123 0 0 Left 2
WINDOW 39 0 0 Left 2
SYMATTR InstName VDD
SYMATTR Value 3
TEXT 72 296 Left 2 !;dc VIN 0 3 0.01
TEXT 72 328 Left 2 !.include cmos2017_models.txt
TEXT 72 360 Left 2 !.tran 0 40n 0 0.1n
