Version 4
SHEET 1 1040 680
WIRE 368 16 272 16
WIRE 176 32 144 32
WIRE 368 32 368 16
WIRE 144 64 144 32
WIRE 144 64 128 64
WIRE 272 80 272 16
WIRE 272 80 224 80
WIRE 176 96 128 96
WIRE 368 112 368 96
WIRE 144 128 128 128
WIRE 224 160 224 80
WIRE 224 160 128 160
WIRE 320 192 128 192
WIRE 368 192 368 160
WIRE 144 224 128 224
FLAG 144 224 0
FLAG 368 208 0
FLAG 144 128 RESET
FLAG 272 160 0
FLAG 608 80 RESET
FLAG 608 160 0
SYMBOL PRSD 64 144 R0
SYMATTR InstName ShiftRegister
SYMBOL nmos4 320 112 R0
WINDOW 123 56 100 Left 2
SYMATTR Value2 l=9.6u w=200u
SYMATTR InstName M1
SYMBOL cap 160 32 R0
SYMATTR InstName C1
SYMATTR Value 15n
SYMBOL voltage 272 64 R0
SYMATTR InstName V1
SYMATTR Value 3
SYMBOL voltage 608 64 R0
WINDOW 3 -194 -88 Left 2
WINDOW 123 0 0 Left 2
WINDOW 39 0 0 Left 2
SYMATTR InstName V2
SYMATTR Value PULSE(0 3 1m 1p 1p 5m 400m 2)
SYMBOL diode 352 32 R0
SYMATTR InstName D1
SYMATTR Value Di_LED
TEXT 32 264 Left 2 !.tran 1
TEXT 32 296 Left 2 !.include cmos2017_models.txt
TEXT 32 328 Left 2 !.model Di_LED D (IS=4e-20 RS=0 BV=5 IBV=100u CJO=0 M=0.5 N=2)
