Version 4
SHEET 1 1020 680
WIRE 144 -48 48 -48
WIRE 400 -48 288 -48
WIRE 288 -32 288 -48
WIRE 48 -16 48 -48
WIRE 544 -16 544 -32
WIRE 320 16 288 16
WIRE 80 32 48 32
WIRE 576 32 544 32
WIRE 320 64 288 64
WIRE 80 80 48 80
WIRE -16 240 -32 240
WIRE -16 272 -32 272
WIRE 608 288 608 272
WIRE -16 304 -32 304
WIRE -16 336 -32 336
WIRE 640 336 608 336
WIRE 448 368 -32 368
WIRE 560 368 448 368
WIRE 640 384 608 384
WIRE -16 400 -32 400
WIRE 608 448 608 384
FLAG 0 64 VSS
IOPIN 0 64 BiDir
FLAG 240 48 VSS
IOPIN 240 48 BiDir
FLAG 544 -32 RESET
IOPIN 544 -32 BiDir
FLAG -16 336 VDD
IOPIN -16 336 BiDir
FLAG 608 272 LED
IOPIN 608 272 BiDir
FLAG -16 304 RESET
IOPIN -16 304 BiDir
FLAG 448 368 VOUT
IOPIN 448 368 BiDir
FLAG 608 448 VSS
IOPIN 608 448 BiDir
FLAG 640 336 VSS
IOPIN 640 336 BiDir
FLAG 80 32 VSS
IOPIN 80 32 BiDir
FLAG 80 80 VSS
IOPIN 80 80 BiDir
FLAG 320 64 VSS
IOPIN 320 64 BiDir
FLAG 320 16 VSS
IOPIN 320 16 BiDir
FLAG 576 32 VSS
IOPIN 576 32 BiDir
FLAG 544 80 VSS
IOPIN 544 80 BiDir
FLAG 496 64 VSS
IOPIN 496 64 BiDir
FLAG 144 -48 C1
IOPIN 144 -48 BiDir
FLAG 400 -48 C2
IOPIN 400 -48 BiDir
FLAG -16 240 C1
IOPIN -16 240 BiDir
FLAG -16 272 C2
IOPIN -16 272 BiDir
FLAG -16 400 VSS
IOPIN -16 400 BiDir
SYMBOL PRSD -96 320 R0
SYMATTR InstName ShiftRegister
SYMBOL nmos4 560 288 R0
WINDOW 123 56 100 Left 2
SYMATTR Value2 l=4.8u w=256.8u
SYMATTR InstName M1
SYMBOL nmos4 0 -16 R0
WINDOW 123 34 128 Left 2
SYMATTR Value2 l=4.8u w=242.4u
SYMATTR InstName M2
SYMBOL nmos4 240 -32 R0
WINDOW 123 16 130 Left 2
SYMATTR Value2 l=4.8u w=242.4u
SYMATTR InstName M3
SYMBOL nmos4 496 -16 R0
WINDOW 123 72 117 Left 2
SYMATTR Value2 l=4.8u w=242.4u
SYMATTR InstName M4
TEXT -104 560 Left 2 !.Include cmos2017_models.txt
