Version 4
SHEET 1 880 680
WIRE 144 64 128 64
WIRE 144 96 128 96
WIRE 352 112 352 96
WIRE 144 128 128 128
WIRE 144 160 128 160
WIRE 400 160 352 160
WIRE 304 192 128 192
WIRE 400 208 400 160
WIRE 400 208 352 208
WIRE 144 224 128 224
WIRE 400 224 400 208
FLAG 144 64 C1
IOPIN 144 64 BiDir
FLAG 144 96 C2
IOPIN 144 96 BiDir
FLAG 144 128 RESET
IOPIN 144 128 BiDir
FLAG 144 160 VDD
IOPIN 144 160 BiDir
FLAG 400 224 VSS
IOPIN 400 224 BiDir
FLAG 352 96 LED
IOPIN 352 96 BiDir
FLAG 144 224 VSS
IOPIN 144 224 BiDir
SYMBOL PRSD 64 144 R0
SYMATTR InstName ShiftRegister
SYMBOL nmos4 304 112 R0
WINDOW 123 -102 158 Left 2
WINDOW 3 1 128 Left 2
SYMATTR Value2 l=4.8u w=256.8u
SYMATTR InstName M1
TEXT 8 440 Left 2 !.Include cmos2017_models.txt
