Version 4
SHEET 1 968 680
WIRE -272 -128 -288 -128
WIRE 832 -96 -144 -96
WIRE -352 -80 -384 -80
WIRE -272 -80 -272 -128
WIRE -256 -80 -272 -80
WIRE 80 -64 -144 -64
WIRE -384 -48 -384 -80
WIRE -384 -48 -416 -48
WIRE -128 -32 -144 -32
WIRE -352 -16 -416 -16
WIRE -128 0 -144 0
WIRE -400 16 -416 16
WIRE -128 32 -144 32
WIRE -400 48 -416 48
WIRE -384 80 -416 80
WIRE 80 80 80 -64
WIRE 80 80 -64 80
WIRE 304 80 160 80
WIRE 528 80 384 80
WIRE 752 80 608 80
WIRE -128 144 -128 32
WIRE -128 144 -160 144
WIRE 80 144 80 80
WIRE 80 144 64 144
WIRE 304 144 304 80
WIRE 304 144 288 144
WIRE 528 144 528 80
WIRE 528 144 512 144
WIRE 752 144 752 80
WIRE 752 144 736 144
WIRE -384 176 -384 80
WIRE -384 176 -416 176
WIRE -128 176 -160 176
WIRE 96 176 64 176
WIRE 320 176 288 176
WIRE 544 176 512 176
WIRE 768 176 736 176
WIRE -384 208 -416 208
WIRE -128 208 -160 208
WIRE 96 208 64 208
WIRE 320 208 288 208
WIRE 544 208 512 208
WIRE 768 208 736 208
WIRE -384 240 -416 240
WIRE -64 240 -64 80
WIRE -64 240 -160 240
WIRE 160 240 160 80
WIRE 160 240 64 240
WIRE 384 240 384 80
WIRE 384 240 288 240
WIRE 608 240 608 80
WIRE 608 240 512 240
WIRE 832 240 832 -96
WIRE 832 240 736 240
WIRE -400 272 -416 272
WIRE -144 272 -160 272
WIRE 80 272 64 272
WIRE 304 272 288 272
WIRE 528 272 512 272
WIRE 752 272 736 272
WIRE -400 304 -416 304
WIRE -144 304 -160 304
WIRE 80 304 64 304
WIRE 304 304 288 304
WIRE 528 304 512 304
WIRE 752 304 736 304
WIRE -400 512 -400 432
FLAG -384 208 PHI1
FLAG -384 240 PHI2
FLAG -128 176 PHI1
FLAG -128 208 PHI2
FLAG 96 176 PHI1
FLAG 96 208 PHI2
FLAG 320 176 PHI1
FLAG 320 208 PHI2
FLAG 544 176 PHI1
FLAG 544 208 PHI2
FLAG 768 176 PHI1
FLAG 768 208 PHI2
FLAG 832 240 VOUT
IOPIN 832 240 BiDir
FLAG -400 512 0
FLAG -320 512 0
FLAG -400 272 VDD
FLAG -400 16 VDD
FLAG -320 432 VDD
FLAG -144 272 VDD
FLAG 80 272 VDD
FLAG 304 272 VDD
FLAG 528 272 VDD
FLAG 752 272 VDD
FLAG -128 0 VDD
FLAG -400 304 VSS
FLAG -144 304 VSS
FLAG -400 432 VSS
FLAG 80 304 VSS
FLAG 304 304 VSS
FLAG 528 304 VSS
FLAG 752 304 VSS
FLAG -400 48 VSS
FLAG -128 -32 RESET
FLAG -512 432 RESET
FLAG -512 512 0
FLAG -288 -128 VSS
SYMBOL XNOR_Reset -208 -32 R0
SYMATTR InstName XNOR
SYMBOL Master_CLK -416 48 R0
SYMATTR InstName MasterCLK
SYMBOL 2phase_CLK -464 272 R0
SYMATTR InstName 2PhaseCLK
SYMBOL Shift_Register -208 224 R0
SYMATTR InstName X1
SYMBOL Shift_Register 16 224 R0
SYMATTR InstName X2
SYMBOL Shift_Register 240 224 R0
SYMATTR InstName X3
SYMBOL Shift_Register 464 224 R0
SYMATTR InstName X4
SYMBOL Shift_Register 688 224 R0
SYMATTR InstName X5
SYMBOL cap -368 -80 R0
SYMATTR InstName C1
SYMATTR Value 15n
SYMBOL voltage -320 416 R0
WINDOW 123 0 0 Left 2
WINDOW 39 0 0 Left 2
SYMATTR InstName V1
SYMATTR Value 3
SYMBOL voltage -512 416 R0
WINDOW 123 0 0 Left 2
WINDOW 39 0 0 Left 2
WINDOW 3 0 136 Left 2
SYMATTR InstName V2
SYMATTR Value PULSE(0 3 0 1p 1p 100m 400m 2)
TEXT -168 432 Left 2 !.tran 1
TEXT -168 464 Left 2 !.include cmos2017_models.txt
