Version 4
SHEET 1 880 772
WIRE 256 32 208 32
WIRE 256 48 256 32
WIRE 208 144 208 32
WIRE 208 144 176 144
WIRE 528 176 176 176
WIRE 576 176 528 176
WIRE 352 208 176 208
WIRE 400 208 352 208
WIRE 224 240 176 240
WIRE 272 240 224 240
WIRE 208 272 176 272
WIRE 208 288 208 272
WIRE 224 384 224 240
WIRE 224 384 -16 384
WIRE 256 480 208 480
WIRE 256 496 256 480
WIRE 208 560 208 480
WIRE 208 560 160 560
WIRE 528 592 528 176
WIRE 528 592 160 592
WIRE 352 624 352 208
WIRE 352 624 160 624
WIRE 176 656 160 656
WIRE 256 688 160 688
WIRE 176 720 160 720
WIRE -16 768 -16 384
WIRE 256 768 256 688
WIRE 256 768 -16 768
FLAG 208 288 0
FLAG 272 320 0
FLAG 256 128 0
FLAG 576 176 PHI1
IOPIN 576 176 BiDir
FLAG 400 208 PHI2
IOPIN 400 208 BiDir
FLAG 208 32 PHI
IOPIN 208 32 BiDir
FLAG 256 576 0
FLAG 176 720 0
FLAG 176 656 Q
IOPIN 176 656 BiDir
FLAG 208 480 D
IOPIN 208 480 BiDir
SYMBOL 2phase_CLK 128 240 R0
SYMATTR InstName X1
SYMBOL voltage 272 224 R0
WINDOW 123 0 0 Left 2
WINDOW 39 0 0 Left 2
SYMATTR InstName V1
SYMATTR Value 3
SYMBOL voltage 256 32 R0
WINDOW 123 0 0 Left 2
WINDOW 39 0 0 Left 2
WINDOW 3 29 98 Left 2
SYMATTR Value PULSE(0 3 0 0.1n 0.1n 1m 2m)
SYMATTR InstName V2
SYMBOL Shift_Register 112 640 R0
SYMATTR InstName X2
SYMBOL voltage 256 480 R0
WINDOW 123 0 0 Left 2
WINDOW 39 0 0 Left 2
SYMATTR InstName V3
SYMATTR Value PULSE(0 3 0 0.1n 0.1n 10m 20m)
TEXT -80 136 Left 2 !.tran 500m
TEXT -312 168 Left 2 !.Include cmos2017_models.txt
