Version 4
SHEET 1 880 680
WIRE 208 112 192 112
WIRE 496 144 192 144
WIRE 384 176 192 176
SYMBOL Shift_Register 144 192 R0
SYMATTR InstName X1
SYMBOL voltage 384 160 R0
SYMATTR InstName V1
SYMBOL voltage 496 128 R0
SYMATTR InstName V2
TEXT 88 -48 Left 2 !.include cmos2017_models.txt
