Version 4
SHEET 1 1212 680
WIRE 272 64 224 64
WIRE 224 96 224 64
WIRE 224 96 176 96
WIRE 272 128 176 128
WIRE 352 192 176 192
WIRE 240 224 240 160
WIRE 240 224 176 224
WIRE 352 224 352 192
WIRE 192 256 176 256
WIRE 192 288 192 256
FLAG 192 288 0
FLAG 240 304 0
FLAG 352 384 0
SYMBOL cap 256 64 R0
SYMATTR InstName Cext
SYMATTR Value 100n
SYMBOL diode 240 144 R90
WINDOW 0 34 -35 VBottom 2
WINDOW 3 7 -95 VTop 2
SYMATTR InstName D1
SYMATTR Value Di_LED
SYMBOL voltage 240 208 R0
WINDOW 0 38 61 Left 2
WINDOW 123 0 0 Left 2
WINDOW 39 0 0 Left 2
SYMATTR InstName V1
SYMATTR Value 3
SYMBOL voltage 352 208 R0
WINDOW 123 0 0 Left 2
WINDOW 39 0 0 Left 2
WINDOW 3 44 52 Left 2
SYMATTR Value PULSE(0 3 5 1u 1u 1 100 1)
SYMATTR InstName V2
SYMBOL voltage 352 288 R0
WINDOW 123 0 0 Left 2
WINDOW 39 0 0 Left 2
WINDOW 3 41 55 Left 2
SYMATTR Value PULSE(3 0 0.5 1u 1u 99 100 1)
SYMATTR InstName V3
SYMBOL Output_Driver 112 176 R0
SYMATTR InstName X1
TEXT 24 8 Left 2 !.model Di_LED D (IS=4e-20 RS=0 BV=5 IBV=100u CJO=0 M=0.5 N=2)
TEXT 24 -32 Left 2 !.include cmos2017_models.txt
TEXT 72 320 Left 2 !.tran 5
