Version 4
SHEET 1 1008 680
WIRE 576 112 208 112
WIRE 96 128 80 128
WIRE 480 144 208 144
WIRE 384 176 208 176
WIRE 288 208 208 208
WIRE 240 240 208 240
WIRE 240 272 240 240
FLAG 288 288 0
FLAG 384 256 0
FLAG 480 224 0
FLAG 576 192 0
FLAG 240 272 VOUT
IOPIN 240 272 BiDir
FLAG 80 128 0
SYMBOL XNOR_Reset 144 176 R0
SYMATTR InstName X1
SYMBOL voltage 288 192 R0
WINDOW 123 0 0 Left 2
WINDOW 39 0 0 Left 2
SYMATTR InstName VDD
SYMATTR Value 3
SYMBOL voltage 384 160 R0
WINDOW 123 0 0 Left 2
WINDOW 39 0 0 Left 2
SYMATTR InstName RESET
SYMATTR Value PULSE(0 3 0 1n 1n 50m 100m)
SYMBOL voltage 480 128 R0
WINDOW 123 0 0 Left 2
WINDOW 39 0 0 Left 2
SYMATTR InstName B
SYMATTR Value PULSE(0 3 0 1n 1n 5m 10m 20)
SYMBOL voltage 576 96 R0
WINDOW 123 0 0 Left 2
WINDOW 39 0 0 Left 2
SYMATTR InstName A
SYMATTR Value PULSE(0 3 0 1n 1n 10m 20m 10)
TEXT 96 312 Left 2 !.tran 500m
TEXT 416 304 Left 2 !.include cmos2017_models.txt
